91846709
  -OEChem-05262502483D

 72 74  0     1  0  0  0  0  0999 V2000
   -0.6858   -1.1149    0.4525 O   0  0  0  0  0  0  0  0  0  0  0  0
    2.7114   -0.9137   -0.9244 O   0  0  0  0  0  0  0  0  0  0  0  0
   -2.4521    0.4011    0.5187 O   0  0  0  0  0  0  0  0  0  0  0  0
    4.1315    0.3476    0.4327 O   0  0  0  0  0  0  0  0  0  0  0  0
    1.9933    1.8447   -0.4983 O   0  0  0  0  0  0  0  0  0  0  0  0
   -6.4291   -0.2227   -0.4869 O   0  0  0  0  0  0  0  0  0  0  0  0
   -4.1069   -1.4044    2.1011 O   0  0  0  0  0  0  0  0  0  0  0  0
   -4.4673    1.8683   -0.6834 O   0  0  0  0  0  0  0  0  0  0  0  0
    4.8202   -2.7629   -1.3738 O   0  0  0  0  0  0  0  0  0  0  0  0
    7.4486   -1.5844   -1.1135 O   0  0  0  0  0  0  0  0  0  0  0  0
    6.7030    1.0437   -0.5976 O   0  0  0  0  0  0  0  0  0  0  0  0
   -0.1379   -3.8039    0.4032 O   0  0  0  0  0  0  0  0  0  0  0  0
   -5.2822   -1.2993   -2.2637 O   0  0  0  0  0  0  0  0  0  0  0  0
   -8.1929   -1.6523    1.0336 O   0  0  0  0  0  0  0  0  0  0  0  0
    4.4668    1.8681    2.9432 O   0  0  0  0  0  0  0  0  0  0  0  0
   -0.9278    3.8457    0.8346 O   0  0  0  0  0  0  0  0  0  0  0  0
   -0.8628    2.3164   -0.9190 N   0  0  0  0  0  0  0  0  0  0  0  0
    1.5703   -0.5034   -0.1757 C   0  0  1  0  0  0  0  0  0  0  0  0
   -0.3025    1.2003   -0.1854 C   0  0  2  0  0  0  0  0  0  0  0  0
    1.0536    0.8050   -0.7780 C   0  0  1  0  0  0  0  0  0  0  0  0
   -1.2744    0.0153   -0.1889 C   0  0  1  0  0  0  0  0  0  0  0  0
    0.4857   -1.5829   -0.2181 C   0  0  1  0  0  0  0  0  0  0  0  0
   -3.6009   -0.2815    0.0238 C   0  0  1  0  0  0  0  0  0  0  0  0
    3.8832   -0.9484   -0.1104 C   0  0  2  0  0  0  0  0  0  0  0  0
   -4.6239   -0.4848    1.1429 C   0  0  1  0  0  0  0  0  0  0  0  0
   -4.2036    0.5342   -1.1212 C   0  0  1  0  0  0  0  0  0  0  0  0
    5.0504   -1.4081   -0.9870 C   0  0  1  0  0  0  0  0  0  0  0  0
    6.3699   -1.3212   -0.2206 C   0  0  2  0  0  0  0  0  0  0  0  0
   -5.9289   -1.0492    0.5675 C   0  0  1  0  0  0  0  0  0  0  0  0
    6.5421    0.0555    0.4221 C   0  0  2  0  0  0  0  0  0  0  0  0
    5.3029    0.3966    1.2568 C   0  0  1  0  0  0  0  0  0  0  0  0
    0.9219   -2.8678    0.4787 C   0  0  0  0  0  0  0  0  0  0  0  0
   -5.5268   -0.0704   -1.5882 C   0  0  2  0  0  0  0  0  0  0  0  0
   -7.0185   -1.1362    1.6325 C   0  0  0  0  0  0  0  0  0  0  0  0
    5.3767    1.7943    1.8601 C   0  0  0  0  0  0  0  0  0  0  0  0
   -1.1259    3.5439   -0.3394 C   0  0  0  0  0  0  0  0  0  0  0  0
   -1.6813    4.5315   -1.3304 C   0  0  0  0  0  0  0  0  0  0  0  0
    1.8224   -0.3178    0.8790 H   0  0  0  0  0  0  0  0  0  0  0  0
   -0.1498    1.5207    0.8538 H   0  0  0  0  0  0  0  0  0  0  0  0
    0.9947    0.7200   -1.8701 H   0  0  0  0  0  0  0  0  0  0  0  0
   -1.5151   -0.2489   -1.2282 H   0  0  0  0  0  0  0  0  0  0  0  0
    0.2221   -1.8322   -1.2549 H   0  0  0  0  0  0  0  0  0  0  0  0
   -3.3065   -1.2770   -0.3393 H   0  0  0  0  0  0  0  0  0  0  0  0
    3.7145   -1.6648    0.7051 H   0  0  0  0  0  0  0  0  0  0  0  0
   -4.7999    0.4650    1.6614 H   0  0  0  0  0  0  0  0  0  0  0  0
   -3.4938    0.5987   -1.9529 H   0  0  0  0  0  0  0  0  0  0  0  0
    5.0989   -0.8247   -1.9136 H   0  0  0  0  0  0  0  0  0  0  0  0
    6.3986   -2.0997    0.5520 H   0  0  0  0  0  0  0  0  0  0  0  0
   -5.7732   -2.0602    0.1676 H   0  0  0  0  0  0  0  0  0  0  0  0
    7.4513    0.0772    1.0323 H   0  0  0  0  0  0  0  0  0  0  0  0
    5.1819   -0.3386    2.0637 H   0  0  0  0  0  0  0  0  0  0  0  0
    1.1332   -2.6861    1.5378 H   0  0  0  0  0  0  0  0  0  0  0  0
    1.8059   -3.3015    0.0017 H   0  0  0  0  0  0  0  0  0  0  0  0
   -1.0650    2.1814   -1.9057 H   0  0  0  0  0  0  0  0  0  0  0  0
   -6.0101    0.6121   -2.2965 H   0  0  0  0  0  0  0  0  0  0  0  0
    2.0811    1.9217    0.4671 H   0  0  0  0  0  0  0  0  0  0  0  0
   -7.2554   -0.1431    2.0289 H   0  0  0  0  0  0  0  0  0  0  0  0
   -6.7244   -1.7937    2.4561 H   0  0  0  0  0  0  0  0  0  0  0  0
    5.1058    2.5653    1.1314 H   0  0  0  0  0  0  0  0  0  0  0  0
    6.3767    1.9989    2.2553 H   0  0  0  0  0  0  0  0  0  0  0  0
   -3.9440   -2.2504    1.6503 H   0  0  0  0  0  0  0  0  0  0  0  0
   -4.7947    2.3699   -1.4494 H   0  0  0  0  0  0  0  0  0  0  0  0
    4.7657   -3.3023   -0.5666 H   0  0  0  0  0  0  0  0  0  0  0  0
    8.2738   -1.5128   -0.6040 H   0  0  0  0  0  0  0  0  0  0  0  0
    5.8522    1.1516   -1.0551 H   0  0  0  0  0  0  0  0  0  0  0  0
    0.1600   -4.6118    0.8550 H   0  0  0  0  0  0  0  0  0  0  0  0
   -6.0130   -1.4319   -2.8911 H   0  0  0  0  0  0  0  0  0  0  0  0
   -0.8883    4.8476   -2.0135 H   0  0  0  0  0  0  0  0  0  0  0  0
   -2.4964    4.0783   -1.9022 H   0  0  0  0  0  0  0  0  0  0  0  0
   -2.0703    5.4054   -0.8006 H   0  0  0  0  0  0  0  0  0  0  0  0
   -8.8736   -1.6953    1.7266 H   0  0  0  0  0  0  0  0  0  0  0  0
    4.5329    2.7649    3.3132 H   0  0  0  0  0  0  0  0  0  0  0  0
  1 21  1  0  0  0  0
  1 22  1  0  0  0  0
  2 18  1  0  0  0  0
  2 24  1  0  0  0  0
  3 21  1  0  0  0  0
  3 23  1  0  0  0  0
  4 24  1  0  0  0  0
  4 31  1  0  0  0  0
  5 20  1  0  0  0  0
  5 56  1  0  0  0  0
  6 29  1  0  0  0  0
  6 33  1  0  0  0  0
  7 25  1  0  0  0  0
  7 61  1  0  0  0  0
  8 26  1  0  0  0  0
  8 62  1  0  0  0  0
  9 27  1  0  0  0  0
  9 63  1  0  0  0  0
 10 28  1  0  0  0  0
 10 64  1  0  0  0  0
 11 30  1  0  0  0  0
 11 65  1  0  0  0  0
 12 32  1  0  0  0  0
 12 66  1  0  0  0  0
 13 33  1  0  0  0  0
 13 67  1  0  0  0  0
 14 34  1  0  0  0  0
 14 71  1  0  0  0  0
 15 35  1  0  0  0  0
 15 72  1  0  0  0  0
 16 36  2  0  0  0  0
 17 19  1  0  0  0  0
 17 36  1  0  0  0  0
 17 54  1  0  0  0  0
 18 20  1  0  0  0  0
 18 22  1  0  0  0  0
 18 38  1  0  0  0  0
 19 20  1  0  0  0  0
 19 21  1  0  0  0  0
 19 39  1  0  0  0  0
 20 40  1  0  0  0  0
 21 41  1  0  0  0  0
 22 32  1  0  0  0  0
 22 42  1  0  0  0  0
 23 25  1  0  0  0  0
 23 26  1  0  0  0  0
 23 43  1  0  0  0  0
 24 27  1  0  0  0  0
 24 44  1  0  0  0  0
 25 29  1  0  0  0  0
 25 45  1  0  0  0  0
 26 33  1  0  0  0  0
 26 46  1  0  0  0  0
 27 28  1  0  0  0  0
 27 47  1  0  0  0  0
 28 30  1  0  0  0  0
 28 48  1  0  0  0  0
 29 34  1  0  0  0  0
 29 49  1  0  0  0  0
 30 31  1  0  0  0  0
 30 50  1  0  0  0  0
 31 35  1  0  0  0  0
 31 51  1  0  0  0  0
 32 52  1  0  0  0  0
 32 53  1  0  0  0  0
 33 55  1  0  0  0  0
 34 57  1  0  0  0  0
 34 58  1  0  0  0  0
 35 59  1  0  0  0  0
 35 60  1  0  0  0  0
 36 37  1  0  0  0  0
 37 68  1  0  0  0  0
 37 69  1  0  0  0  0
 37 70  1  0  0  0  0
M  END
> <PUBCHEM_COMPOUND_CID>
91846709

> <PUBCHEM_CONFORMER_RMSD>
1.2

> <PUBCHEM_CONFORMER_DIVERSEORDER>
1
16
15
11
12
7
19
20
22
5
18
14
21
9
8
10
6
4
17
3
2
13

> <PUBCHEM_MMFF94_PARTIAL_CHARGES>
48
1 -0.56
10 -0.68
11 -0.68
12 -0.68
13 -0.68
14 -0.68
15 -0.68
16 -0.57
17 -0.73
18 0.28
19 0.3
2 -0.56
20 0.28
21 0.56
22 0.28
23 0.28
24 0.56
25 0.28
26 0.28
27 0.28
28 0.28
29 0.28
3 -0.56
30 0.28
31 0.28
32 0.28
33 0.56
34 0.28
35 0.28
36 0.57
37 0.06
4 -0.56
5 -0.68
54 0.37
56 0.4
6 -0.56
61 0.4
62 0.4
63 0.4
64 0.4
65 0.4
66 0.4
67 0.4
7 -0.68
71 0.4
72 0.4
8 -0.68
9 -0.68

> <PUBCHEM_EFFECTIVE_ROTOR_COUNT>
12.6

> <PUBCHEM_PHARMACOPHORE_FEATURES>
30
1 1 acceptor
1 10 acceptor
1 10 donor
1 11 acceptor
1 11 donor
1 12 acceptor
1 12 donor
1 13 acceptor
1 13 donor
1 14 acceptor
1 14 donor
1 15 acceptor
1 15 donor
1 16 acceptor
1 17 donor
1 2 acceptor
1 3 acceptor
1 4 acceptor
1 5 acceptor
1 5 donor
1 6 acceptor
1 7 acceptor
1 7 donor
1 8 acceptor
1 8 donor
1 9 acceptor
1 9 donor
6 1 18 19 20 21 22 rings
6 4 24 27 28 30 31 rings
6 6 23 25 26 29 33 rings

> <PUBCHEM_HEAVY_ATOM_COUNT>
37

> <PUBCHEM_ATOM_DEF_STEREO_COUNT>
14

> <PUBCHEM_ATOM_UDEF_STEREO_COUNT>
1

> <PUBCHEM_BOND_DEF_STEREO_COUNT>
0

> <PUBCHEM_BOND_UDEF_STEREO_COUNT>
0

> <PUBCHEM_ISOTOPIC_ATOM_COUNT>
0

> <PUBCHEM_COMPONENT_COUNT>
1

> <PUBCHEM_CACTVS_TAUTO_COUNT>
2

> <PUBCHEM_CONFORMER_ID>
0579783500000001

> <PUBCHEM_MMFF94_ENERGY>
101.7922

> <PUBCHEM_FEATURE_SELFOVERLAP>
152.477

> <PUBCHEM_SHAPE_FINGERPRINT>
10050765 1 17974851662060091678
10165383 225 18130790127299715360
10930396 42 18118939577610680936
11646440 116 18410298025260901987
12516196 113 18408605872697446131
13533116 47 17989769999572213690
13617811 41 18260557735934929156
13782708 43 18269557140066997470
13811026 1 18335135380010152902
14068700 686 18337107848252300772
14840074 17 18202278104471151487
15131766 46 16628249247412325128
15183329 4 13406792229076235090
15419008 47 18412261727106130944
18608769 82 18410855460840383278
21033648 29 18340473492580189288
23559900 14 18040435529012337645
23569914 152 16971652734577053927
24771293 8 18200020893194189456
2747138 104 18408326592069358840
283562 15 18335985246795932177
3004659 81 17458069286970999476
3178227 256 18334867138276399171
3383291 50 18187366567074024603
469060 322 18188787036558579721
6004065 56 18268420403672369117

> <PUBCHEM_SHAPE_MULTIPOLES>
662.55
19.55
3.8
1.7
0.54
3.29
-0.61
-8.53
-2.37
0.53
0.4
0.21
0.21
3.44

> <PUBCHEM_SHAPE_SELFOVERLAP>
1365.101

> <PUBCHEM_SHAPE_VOLUME>
370.5

> <PUBCHEM_COORDINATE_TYPE>
2
5
10

$$$$
